Version 4
SHEET 1 880 680
WIRE 208 112 80 112
WIRE 80 144 80 112
WIRE 80 240 80 224
FLAG 80 240 0
FLAG 208 112 AUDIO_OUT
SYMBOL voltage 80 128 R0
WINDOW 3 -8 148 Left 2
SYMATTR InstName V1
SYMATTR Value wavefile="input.wav" chan=0
TEXT 70 304 Left 2 !.tran 0 5 0 100n
