Version 4
SHEET 1 880 680
WIRE 144 144 128 144
WIRE 320 144 256 144
WIRE 352 144 320 144
WIRE 128 224 128 144
WIRE 160 224 128 224
WIRE 320 224 320 144
WIRE 320 224 240 224
WIRE 128 240 128 224
WIRE 128 320 128 304
FLAG 128 320 0
SYMBOL TTL_Schmitt_Trigger_Inverter 192 144 R0
SYMATTR InstName X1
SYMBOL res 256 208 R90
WINDOW 0 44 1 VBottom 2
WINDOW 3 37 3 VTop 2
SYMATTR InstName R1
SYMATTR Value 1k
SYMBOL cap 112 240 R0
WINDOW 0 -37 18 Left 2
WINDOW 3 -66 40 Left 2
SYMATTR InstName C1
SYMATTR Value 100n
TEXT 204 320 Left 2 !.tran 0 100m 0 100n startup
