Version 4
SHEET 1 880 680
WIRE 544 -80 96 -80
WIRE 544 -32 544 -80
WIRE 544 64 544 48
WIRE 688 64 544 64
WIRE 544 80 544 64
WIRE 352 128 256 128
WIRE 448 128 432 128
WIRE 480 128 448 128
WIRE 96 160 96 -80
WIRE 256 160 256 128
WIRE 448 160 448 128
WIRE 480 160 480 128
WIRE 496 160 480 160
WIRE 96 256 96 240
WIRE 256 256 256 240
WIRE 448 256 448 240
WIRE 544 256 544 176
FLAG 96 256 0
FLAG 256 256 0
FLAG 544 256 0
FLAG 688 64 Out
FLAG 544 -80 Vin
FLAG 448 256 0
SYMBOL voltage 96 144 R0
WINDOW 123 0 0 Left 0
WINDOW 39 0 0 Left 0
SYMATTR InstName V1
SYMATTR Value 100
SYMBOL voltage 256 144 R0
WINDOW 3 -49 -195 VRight 2
WINDOW 123 0 0 Left 0
WINDOW 39 0 0 Left 0
SYMATTR Value PULSE(0 10 0 1n 1n 50u 100u)
SYMATTR InstName V2
SYMBOL res 448 112 R90
WINDOW 0 0 56 VBottom 2
WINDOW 3 32 56 VTop 2
SYMATTR InstName R1
SYMATTR Value 50
SYMBOL res 528 -48 R0
SYMATTR InstName R2
SYMATTR Value {R}
SYMBOL nmos 496 80 R0
SYMATTR InstName M1
SYMATTR Value IRF1407
SYMBOL res 432 144 R0
SYMATTR InstName R3
SYMATTR Value 1k
TEXT 56 408 Left 2 !.tran 0 10m 0 10u
TEXT 56 480 Left 2 !.MEAS Voavg AVG (V(Vin,Out))
TEXT 56 512 Left 2 !.MEAS Pin AVG (-V(Vin)*I(V1))
TEXT 56 544 Left 2 !.MEAS Pout AVG (V(Vin,Out)*I(R2))
TEXT 56 576 Left 2 !.MEAS Eff PARAM Pout*100/Pin
TEXT 56 368 Left 2 !.STEP PARAM R 1 10 1
