Version 4
SHEET 1 1756 788
WIRE 944 -64 880 -64
WIRE 576 -32 576 -64
WIRE 576 -32 192 -32
WIRE 576 0 576 -32
WIRE 576 96 576 80
WIRE 704 96 576 96
WIRE 576 112 576 96
WIRE 416 192 288 192
WIRE 512 192 496 192
WIRE 528 192 512 192
WIRE 1472 208 1424 208
WIRE 192 224 192 -32
WIRE 288 224 288 192
WIRE 1184 256 1120 256
WIRE 1344 256 1344 208
WIRE 1344 256 1264 256
WIRE 1472 256 1472 208
WIRE 1504 256 1472 256
WIRE 1344 304 1344 256
WIRE 1472 304 1472 256
WIRE 1472 304 1424 304
WIRE 192 336 192 304
WIRE 288 336 288 304
WIRE 576 336 576 208
WIRE 1120 336 1120 256
WIRE 1504 336 1504 256
WIRE 1120 448 1120 416
WIRE 1504 448 1504 416
FLAG 192 336 0
FLAG 288 336 0
FLAG 576 336 0
FLAG 704 96 OUT
FLAG 576 -64 IN
FLAG 880 -64 tc#m1
FLAG 512 192 G
FLAG 1120 448 0
FLAG 1504 448 0
SYMBOL voltage 192 208 R0
WINDOW 123 0 0 Left 0
WINDOW 39 0 0 Left 0
SYMATTR InstName V1
SYMATTR Value 100
SYMBOL voltage 288 208 R0
WINDOW 123 0 0 Left 0
WINDOW 39 0 0 Left 0
SYMATTR InstName V2
SYMATTR Value 10
SYMBOL nmos 528 112 R0
WINDOW 3 -178 267 Left 2
SYMATTR InstName M1
SYMATTR Value IPB035N08N3 RthetaJA=62 Tambient=25
SYMBOL res 512 176 R90
WINDOW 0 0 56 VBottom 2
WINDOW 3 32 56 VTop 2
SYMATTR InstName R1
SYMATTR Value 50
SYMBOL res 560 -16 R0
SYMATTR InstName R2
SYMATTR Value 5
SYMBOL SOAtherm-HeatSink 1024 -64 R0
SYMATTR InstName U1
SYMATTR Value Rtheta=5 Tambient=25
SYMATTR SpiceModel aluminum
SYMBOL bi 1120 416 R180
WINDOW 0 24 80 Left 2
WINDOW 3 -182 -81 Left 2
SYMATTR InstName TJ
SYMATTR Value I=V(OUT)*Id(M1)+V(G)*Ig(M1)
SYMBOL res 1280 240 R90
WINDOW 0 -39 81 VBottom 2
WINDOW 3 -39 94 VTop 2
SYMATTR InstName R3
SYMATTR Value 1
SYMBOL res 1440 288 R90
WINDOW 0 60 72 VBottom 2
WINDOW 3 55 72 VTop 2
SYMATTR InstName R4
SYMATTR Value 61
SYMBOL res 1440 192 R90
WINDOW 0 -30 83 VBottom 2
WINDOW 3 -30 90 VTop 2
SYMATTR InstName R5
SYMATTR Value 5
SYMBOL voltage 1504 320 R0
WINDOW 123 0 0 Left 0
WINDOW 39 0 0 Left 0
SYMATTR InstName Ta
SYMATTR Value 25
TEXT 192 456 Left 2 !.options SOAaccounting=1
TEXT 190 420 Left 2 !.tran 0 500 0 1
